82
S0 minimum; CAM-B3LYP/6-311g*; E_SCF = -2188.32953871 Eh
Mg	   -1.320291	    0.178463	    0.006967
C	    1.848644	   -1.134776	    0.246659
C	   -0.051763	    3.258365	    0.644502
C	   -4.437086	    1.466730	   -0.305510
C	   -2.553878	   -2.991319	   -0.650590
N	    0.637493	    0.936488	    0.375103
C	    1.815111	    0.220541	    0.399082
C	    3.005381	    1.141075	    0.572724
C	    2.339553	    2.469003	    0.982028
C	    0.879170	    2.233690	    0.636678
C	    2.515208	    2.794702	    2.466760
C	    3.828052	    1.246620	   -0.718930
C	    5.151470	    1.979682	   -0.495468
C	    5.949574	    2.165079	   -1.759495
O	    6.366374	    3.212390	   -2.173682
O	    6.151798	    0.995630	   -2.388743
N	   -2.109305	    2.029931	    0.168906
C	   -1.432471	    3.168367	    0.420033
C	   -2.349871	    4.295565	    0.442099
C	   -3.595752	    3.793215	    0.218629
C	   -3.442769	    2.353077	    0.022916
C	   -1.955189	    5.710559	    0.706996
C	   -4.843715	    4.558452	    0.182176
C	   -5.997749	    4.196744	    0.733630
N	   -3.175334	   -0.629634	   -0.400609
C	   -4.326077	    0.068395	   -0.502938
C	   -5.419039	   -0.809698	   -0.827540
C	   -4.890562	   -2.071377	   -0.918087
C	   -3.479592	   -1.947229	   -0.648635
C	   -6.841108	   -0.385297	   -1.011649
C	   -5.618982	   -3.350813	   -1.197277
C	   -6.087891	   -4.064554	    0.074381
N	   -0.577543	   -1.680023	   -0.128417
C	   -1.187813	   -2.895875	   -0.413133
C	   -0.202481	   -3.945398	   -0.443344
C	    0.997615	   -3.313818	   -0.171759
C	    0.711689	   -1.942958	    0.007794
C	   -0.435652	   -5.393492	   -0.715981
C	    2.436919	   -3.508663	   -0.040022
O	    3.104942	   -4.505298	   -0.146311
C	    3.043307	   -2.090332	    0.254327
C	    3.791971	   -2.050844	    1.568213
O	    4.795014	   -1.415629	    1.764552
O	    3.178589	   -2.770823	    2.510281
C	    3.800862	   -2.778821	    3.796161
H	    0.335799	    4.248654	    0.853752
H	   -5.425762	    1.886806	   -0.438740
H	   -2.940145	   -3.980877	   -0.870255
H	    3.662575	    0.769051	    1.361724
H	    2.728391	    3.303257	    0.391556
H	    1.984425	    3.707412	    2.742966
H	    2.130884	    1.984601	    3.091373
H	    3.571650	    2.931942	    2.708031
H	    3.234020	    1.756269	   -1.485360
H	    4.046830	    0.252494	   -1.106959
H	    5.757255	    1.400850	    0.208693
H	    5.002053	    2.972950	   -0.071541
H	   -2.814573	    6.379497	    0.671339
H	   -1.501563	    5.819517	    1.696004
H	   -1.223713	    6.067128	   -0.023133
H	   -4.795359	    5.519170	   -0.325297
H	   -6.105832	    3.275020	    1.293610
H	   -6.873238	    4.831916	    0.664976
H	   -7.266536	    0.018445	   -0.088436
H	   -6.937599	    0.390170	   -1.776030
H	   -7.471004	   -1.221197	   -1.316618
H	   -4.982449	   -4.023886	   -1.778345
H	   -6.482613	   -3.146656	   -1.835338
H	   -6.613194	   -4.992316	   -0.164307
H	   -5.244504	   -4.311898	    0.722338
H	   -6.766540	   -3.431997	    0.650268
H	   -1.099206	   -5.840043	    0.029391
H	   -0.896289	   -5.549602	   -1.694947
H	    0.507347	   -5.937945	   -0.696016
H	    3.773820	   -1.864120	   -0.524451
H	    3.190191	   -3.432165	    4.412549
H	    4.818140	   -3.160796	    3.722318
H	    3.827367	   -1.772304	    4.213294
C	    6.907101	    1.066201	   -3.598694
H	    7.902186	    1.465447	   -3.404518
H	    6.970163	    0.045778	   -3.966260
H	    6.406473	    1.705594	   -4.325294
