51
B3LYP/6-31G(d) level optimized coordinates of lowest triplet state (T1), HF =  -2054.4963293a.u. 
C        0.000000000      3.869371000      1.193728000
C        0.000000000      2.719859000      2.005402000
C        0.000000000      1.422935000      1.450948000
C        0.000000000      1.288649000      0.025264000
C        0.000000000      2.462735000     -0.757954000
C        0.000000000      3.733606000     -0.183790000
C        0.000000000      0.000000000     -0.647064000
C        0.000000000     -1.288649000      0.025264000
C        0.000000000     -1.422935000      1.450948000
C        0.000000000     -2.719859000      2.005402000
C        0.000000000     -3.869371000      1.193728000
C        0.000000000     -3.733606000     -0.183790000
C        0.000000000     -2.462735000     -0.757954000
H        0.000000000      4.849429000      1.653318000
H        0.000000000      2.374786000     -1.837242000
H        0.000000000      4.613164000     -0.820749000
H        0.000000000     -4.849429000      1.653318000
H        0.000000000     -4.613164000     -0.820749000
H        0.000000000     -2.374786000     -1.837242000
C        0.000000000      2.942572000      3.506692000
C        0.000000000     -2.942572000      3.506692000
F        0.000000000      4.257405000      3.821085000
F        1.088576000      2.403404000      4.100100000
F       -1.088576000      2.403404000      4.100100000
F       -1.088576000     -2.403404000      4.100100000
F        1.088576000     -2.403404000      4.100100000
F        0.000000000     -4.257405000      3.821085000
P        0.000000000      0.000000000      2.598889000
C        0.000000000      0.000000000     -2.147427000
C       -1.226834000      0.000000000     -2.853280000
C        1.226834000      0.000000000     -2.853280000
C       -1.221036000      0.000000000     -4.298768000
C       -2.495279000      0.000000000     -2.188311000
C        1.221036000      0.000000000     -4.298768000
C        2.495279000      0.000000000     -2.188311000
C       -2.468506000      0.000000000     -4.998294000
C        0.000000000      0.000000000     -4.980131000
C       -3.668358000      0.000000000     -2.896661000
H       -2.516716000      0.000000000     -1.103348000
C        2.468506000      0.000000000     -4.998294000
C        3.668358000      0.000000000     -2.896661000
H        2.516716000      0.000000000     -1.103348000
C       -3.658204000      0.000000000     -4.321233000
H       -2.448954000      0.000000000     -6.085540000
H        0.000000000      0.000000000     -6.068279000
H       -4.618280000      0.000000000     -2.369199000
H        2.448954000      0.000000000     -6.085540000
C        3.658204000      0.000000000     -4.321233000
H        4.618280000      0.000000000     -2.369199000
H       -4.598834000      0.000000000     -4.864920000
H        4.598834000      0.000000000     -4.864920000
