6
Energy = -2000.019917903 Ha (TZVP) -2000.028016121 Ha (TZVPP)
Ti    0.0000038   -1.3374996   -0.2732776 
Ti   -0.0000040    1.3374946   -0.2732727 
O     0.0000051    2.8190449    0.5036081 
O    -1.3163538   -0.0000033   -0.2303342 
O     1.3163535    0.0000076   -0.2303345 
O    -0.0000046   -2.8190443    0.5036109
