6
Energy = -2000.008024399 Ha (TZVP) -2000.014533189 Ha (TZVPP)
Ti    1.5827097    0.0800250    0.0000000 
O     0.6075442   -1.4628333    0.0000000 
O     0.4909834    0.7711268   -1.2914084 
O     0.4909834    0.7711268    1.2914084 
Ti   -0.7524524   -0.0383927    0.0000000 
O    -2.4197682   -0.1210525    0.0000000 
