6
Energy = -1999.606036804 Ha (TZVP)  -1999.612228959 Ha (TZVPP)
Ti   -0.0000123   -1.2868222   -0.3154674 
Ti   -0.0000132    1.4376073   -0.2739017 
O     0.0000410    1.9781382    1.2118048 
O    -1.2220658   -0.0424950   -0.3830682 
O     1.2220358   -0.0424948   -0.3831365 
O     0.0000444   -2.0653519    1.3060894
