9
Energy = -3000.140507918 Ha (TZVP) -3000.149450496 Ha (TZVPP)
Ti   -0.3560417   -0.3073795   -1.4225648 
Ti    1.5084387    1.1351272   -0.0000002 
Ti   -0.3560415   -0.3073796    1.4225650 
O    -1.3131132   -0.2961941    2.7686207 
O    -0.7252892   -1.4656143   -0.0000000 
O    -0.3728211    1.1671026    0.0000009 
O     1.5191935    0.1861273   -1.5317980 
O    -1.3131126   -0.2961946   -2.7686210 
O     1.5191940    0.1861270    1.5317975
