%mem=8GB
%nprocs=8
#p b3lyp/genecp gfinput iop(6/7=3) EmpiricalDispersion=GD3BJ opt=tight freq

Title Card Required

1 2
Ru 0.00000000 -0.00000000 -0.04105589
O 1.33206659 -0.00000000 1.08941538
O 0.00000000 -1.36546474 -0.97659647
O -0.00000000 1.36546474 -0.97659647
O -1.33206659 -0.00000000 1.08941538

O 0
aug-cc-pvtz
****
Ru 0
S 9 1.00
208.2500000 0.0005230
18.8471000 -0.0449130
11.7818000 0.2576260
7.3619500 -0.2091300
4.2777100 -0.5106620
1.1910700 0.8032470
0.5485680 0.4984140
0.1386940 0.0337660
0.0676510 -0.0120940
S 9 1.00
208.2500000 -0.0001820
18.8471000 0.0052730
11.7818000 -0.0785570
7.3619500 -0.0138970
4.2777100 0.5479870
1.1910700 -1.4980850
0.5485680 0.4795000
0.1386940 2.1402540
0.0676510 -1.4545610
S 9 1.00
208.2500000 -0.0006350
18.8471000 0.0517470
11.7818000 -0.3171890
7.3619500 0.3298480
4.2777100 0.6270530
1.1910700 -3.4222090
0.5485680 3.8479480
0.1386940 -1.6239260
0.0676510 -0.6032230
S 9 1.00
208.2500000 -0.0001750
18.8471000 0.0148030
11.7818000 -0.0875270
7.3619500 0.0842820
4.2777100 0.1549110
1.1910700 -0.3381410
0.5485680 -0.3160050
0.1386940 0.2835260
0.0676510 0.6092730
S 1 1.00
0.0301410 1.0000000
S
1 1.00
0.0134000 1.0000000
P
8 1.00
22.7753000
-0.0015440
14.2340000 0.0257710
5.9875500
-0.1865980
1.6392400 0.4427740
0.8278800 0.4781510
0.4090100 0.2083690
0.1718770 0.0246350
0.0712710
-0.0002190
P
8 1.00
22.7753000
-0.0000630
14.2340000
-0.0114610
5.9875500 0.0999930
1.6392400
-0.3036410
0.8278800
-0.3638860
0.4090100 0.1659350
0.1718770 0.7005450
0.0712710 0.3189430
P
8 1.00
22.7753000
-0.0001480
14.2340000
-0.0091740
5.9875500 0.0813740
1.6392400
-0.2361250
0.8278800
-0.2943330
0.4090100 0.0150980
0.1718770 0.6560890
0.0712710 0.4389440
P
8 1.00
22.7753000 0.0011030
14.2340000
-0.0225190
5.9875500 0.1821610
1.6392400
-0.7313300
0.8278800
-0.4901170
0.4090100 1.5235390
0.1718770
-0.0391820
0.0712710
-0.8661830
P
1 1.00
0.0292260 1.0000000
P
1 1.00
0.0120000 1.0000000
D
7 1.00
25.8838000 0.0015230
7.5925500
-0.0181620
2.7129300 0.1096910
1.3970800 0.2915970
0.6825650 0.3620440
0.3193780 0.2975140
0.1417810 0.1610370
D
7 1.00
25.8838000 0.0026560
7.5925500
-0.0337600
2.7129300 0.2929230
1.3970800 0.6173710
0.6825650
-0.3625300
0.3193780
-0.8031580
0.1417810 0.3154610
D
7 1.00
25.8838000
-0.0015510
7.5925500 0.0190350
2.7129300
-0.1257740
1.3970800
-0.3632850
0.6825650
-0.2793510
0.3193780 0.2457120
0.1417810 0.5472610
D 1 1.00
0.0580170 1.0000000
D 1 1.00
0.0237000 1.0000000
F 1 1.00
1.6965000 1.0000000
F 1 1.00
0.4754000 1.0000000
F 1 1.00
0.1768000 1.0000000
G 1 1.00
1.0311000 1.0000000
G 1 1.00
0.4195000 1.0000000
****

RU 0
RU-ECP 4 28
g potential 
1
2 1.0000000 0.0000000
s-g potential 
2
2 11.50059000 209.78649300
2 5.06857500 30.21430700
p-g potential 
4
2 10.53263400 48.75124400
2 10.19201000 97.49652900
2 4.73489200 7.86018800
2 4.50906500 15.32975100
d-g potential 
4
2 8.87797700 26.96750600
2 8.76612200 40.43230300
2 3.17019600 3.34075800
2 3.22885100 5.25635200
f-g potential 
2
2 7.82024900 -8.84752500
2 7.83964700 -11.83551800
