102
B3LYP-D3BJ/6-31+G(d) level optimized coordinates of ground-state structures, HF =  -4109.5671025a.u. , Molecular Binding Energy= HFdimer-HFmonomer-HFmonomer = -1.99 kcal/mol
P       -0.330183000     -0.001877000      1.929909000
F        1.493069000     -2.395697000      1.659217000
F        1.492864000      2.393039000      1.663096000
F        0.602052000     -2.416553000      3.647982000
F        0.793198000     -4.261160000      2.515514000
F        0.602725000      2.408910000      3.652322000
F        0.792918000      4.256257000      2.524192000
C       -4.800616000      0.001705000     -1.264336000
C       -4.675711000     -0.000193000      0.140861000
C       -6.115764000      0.002065000     -1.861349000
C       -1.632676000      3.820638000      1.522869000
H       -1.233780000      4.809332000      1.715705000
C       -5.818569000     -0.001614000      0.965748000
C       -3.307384000     -0.000758000      0.754239000
C       -0.871492000     -2.713281000      1.794024000
C       -2.703263000      1.250443000      1.024774000
C       -1.369057000     -1.376646000      1.558593000
C       -1.369178000      1.373586000      1.561497000
C       -3.661641000      0.003353000     -2.128327000
C       -2.703110000     -1.252489000      1.022012000
C       -7.130623000     -0.001222000      0.361382000
C       -3.452323000      2.443538000      0.753984000
H       -4.450257000      2.344594000      0.345878000
C       -2.937877000      3.686174000      0.992935000
H       -3.522907000      4.574396000      0.775751000
C       -8.281449000     -0.002679000      1.210496000
C       -5.729992000     -0.003428000      2.394187000
C       -0.871715000      2.709751000      1.799704000
C       -2.937399000     -3.688167000      0.984761000
H       -3.522287000     -4.575987000      0.765527000
C       -3.451978000     -2.445077000      0.748493000
C       -1.632278000     -3.823644000      1.514639000
H       -1.233323000     -4.812709000      1.705413000
C       -8.153512000     -0.004403000      2.575247000
H       -9.036650000     -0.005488000      3.208086000
C        0.495536000      2.937773000      2.404102000
C       -7.243943000      0.000568000     -1.033415000
C       -6.225056000      0.003949000     -3.287320000
C       -6.858987000     -0.004776000      3.172886000
H       -6.769771000     -0.006139000      4.255762000
C        0.495566000     -2.942438000      2.398455000
C       -3.808296000      0.005196000     -3.490588000
H       -2.925597000      0.006448000     -4.123603000
C       -5.106201000      0.005475000     -4.080068000
H       -2.669076000      0.003214000     -1.696618000
H       -7.218663000      0.004158000     -3.729281000
H       -5.203485000      0.006906000     -5.162290000
H       -9.264846000     -0.002388000      0.746268000
H       -8.234017000      0.000812000     -1.485028000
H       -4.748265000     -0.003722000      2.857123000
H       -4.449867000     -2.345376000      0.340468000
P        0.330094000      0.002211000     -1.929729000
F       -1.492692000      2.396681000     -1.658552000
F       -1.493331000     -2.392297000     -1.663726000
F       -0.602350000      2.416573000     -3.647642000
F       -0.792582000      4.261631000     -2.515787000
F       -0.602411000     -2.408552000     -3.652561000
F       -0.793413000     -4.255759000     -2.524323000
C        4.800701000     -0.000946000      1.264345000
C        4.675711000      0.000042000     -0.140847000
C        6.115884000     -0.001852000      1.861279000
C        1.631991000     -3.820455000     -1.522275000
H        1.232986000     -4.809102000     -1.715123000
C        5.818524000      0.000259000     -0.965799000
C        3.307350000      0.000764000     -0.754156000
C        0.871887000      2.713551000     -1.794234000
C        2.702968000     -1.250383000     -1.024402000
C        1.369220000      1.376855000     -1.558639000
C        1.368902000     -1.373371000     -1.561217000
C        3.661775000     -0.001054000      2.128405000
C        2.703316000      1.252547000     -1.022199000
C        7.130613000     -0.000632000     -0.361511000
C        3.451741000     -2.443576000     -0.753254000
H        4.449602000     -2.344767000     -0.344944000
C        2.937097000     -3.686155000     -0.992073000
H        3.521911000     -4.574450000     -0.774612000
C        8.281391000     -0.000453000     -1.210693000
C        5.729867000      0.001283000     -2.394235000
C        0.871268000     -2.709471000     -1.799392000
C        2.938127000      3.688182000     -0.985503000
H        3.523243000      4.575930000     -0.766581000
C        3.452494000      2.445034000     -0.749085000
C        1.632930000      3.823814000     -1.515159000
H        1.234136000      4.812923000     -1.706043000
C        8.153377000      0.000532000     -2.575436000
H        9.036478000      0.000644000     -3.208328000
C       -0.495817000     -2.937313000     -2.404255000
C        7.244015000     -0.001676000      1.033279000
C        6.225258000     -0.002879000      3.287245000
C        6.858817000      0.001416000     -3.173000000
H        6.769539000      0.002208000     -4.255871000
C       -0.495276000      2.942881000     -2.398347000
C        3.808509000     -0.002040000      3.490656000
H        2.925850000     -0.002080000      4.123727000
C        5.106449000     -0.002995000      4.080057000
H        2.669186000     -0.000230000      1.696757000
H        7.218887000     -0.003554000      3.729152000
H        5.203797000     -0.003775000      5.162275000
H        9.264814000     -0.001116000     -0.746519000
H        8.234115000     -0.002355000      1.484832000
H        4.748114000      0.001971000     -2.857114000
H        4.450457000      2.345189000     -0.341270000
