102
B3LYP-D3BJ/6-31+G(d) level optimized coordinates of ground-state structures, HF =  -4109.5563997a.u., MolecularBinding Energy= HFdimer-HFmonomer-HFmonomer = -1.34 kcal/mol
P       -7.340165000      0.445920000      0.071803000
F       -9.587558000     -1.468799000     -0.709748000
F       -9.379012000     -1.355958000      1.460111000
F       -9.726423000     -3.269798000      0.495165000
F       -8.250463000      3.131474000     -1.080052000
F       -8.036674000      3.250441000      1.088881000
F       -7.350734000      4.884125000     -0.166603000
C       -7.561649000     -2.305410000      0.236910000
C       -5.251120000     -1.475462000     -0.028831000
C       -2.836385000     -0.893677000     -0.283094000
C       -2.280656000     -1.168787000     -1.550317000
C       -4.824957000     -2.845766000      0.001577000
H       -3.767833000     -3.061361000     -0.089827000
C       -0.929249000     -1.667467000     -1.639696000
C       -5.901983000      1.447067000     -0.122357000
C       -6.051706000      2.885080000     -0.184840000
C       -4.563323000      0.918603000     -0.223946000
C       -4.270827000     -0.463998000     -0.175732000
C       -3.471233000      1.832224000     -0.381195000
H       -2.478437000      1.413700000     -0.458686000
C       -2.066230000     -1.054677000      0.887931000
C       -6.660723000     -1.183128000      0.091247000
C       -9.056610000     -2.097603000      0.369758000
C       -3.011602000     -0.976443000     -2.765015000
H       -4.029263000     -0.603050000     -2.711504000
C       -5.715663000     -3.872590000      0.140929000
H       -5.368809000     -4.901176000      0.160706000
C       -7.100093000     -3.599549000      0.260249000
H       -7.798802000     -4.419988000      0.370455000
C       -2.442466000     -1.252589000     -3.982426000
H       -3.013486000     -1.096528000     -4.893618000
C       -2.578333000     -0.737021000      2.186249000
H       -3.589945000     -0.353019000      2.270382000
C        0.040416000     -1.739405000      1.991180000
H        1.051968000     -2.126599000      1.918409000
C       -3.659198000      3.183780000     -0.435616000
C       -0.717679000     -1.563301000      0.791195000
C       -0.484198000     -1.416236000      3.213650000
H        0.112817000     -1.535935000      4.112524000
C       -4.968364000      3.717248000     -0.335387000
H       -5.113440000      4.789826000     -0.379066000
C       -7.418203000      3.532137000     -0.085903000
C       -0.376408000     -1.948638000     -2.926701000
H        0.646659000     -2.311615000     -2.979275000
C       -1.108475000     -1.747405000     -4.066982000
H       -0.675430000     -1.959068000     -5.040654000
C       -0.192324000     -1.867126000     -0.468633000
H        0.816469000     -2.260759000     -0.550435000
C       -1.810507000     -0.905200000      3.309798000
H       -2.214610000     -0.647788000      4.284945000
P        7.340127000     -0.446008000     -0.071995000
F        9.587686000      1.468672000      0.709142000
F        9.378901000      1.355638000     -1.460682000
F        9.726516000      3.269552000     -0.495954000
F        8.250452000     -3.131526000      1.079969000
F        8.036344000     -3.250633000     -1.088925000
F        7.350501000     -4.884197000      0.166771000
C        7.561718000      2.305296000     -0.237376000
C        5.251181000      1.475481000      0.028710000
C        2.836447000      0.893823000      0.283261000
C        2.280792000      1.168991000      1.550505000
C        4.825073000      2.845798000     -0.001802000
H        3.767968000      3.061445000      0.089696000
C        0.929371000      1.667622000      1.639943000
C        5.901921000     -1.447069000      0.122454000
C        6.051581000     -2.885082000      0.185057000
C        4.563302000     -0.918531000      0.224181000
C        4.270863000      0.464079000      0.175834000
C        3.471191000     -1.832079000      0.381711000
H        2.478438000     -1.413476000      0.459338000
C        2.066225000      1.054761000     -0.887729000
C        6.660759000      1.183070000     -0.091497000
C        9.056655000      2.097404000     -0.370365000
C        3.011813000      0.976717000      2.765167000
H        4.029491000      0.603375000      2.711612000
C        5.715808000      3.872567000     -0.141363000
H        5.368998000      4.901166000     -0.161214000
C        7.100215000      3.599453000     -0.260803000
H        7.798947000      4.419850000     -0.371171000
C        2.442732000      1.252874000      3.982601000
H        3.013810000      1.096867000      4.893766000
C        2.578245000      0.737043000     -2.186064000
H        3.589859000      0.353056000     -2.270245000
C       -0.040517000      1.739378000     -1.990870000
H       -1.052080000      2.126535000     -1.918041000
C        3.659097000     -3.183638000      0.436257000
H        2.813808000     -3.855104000      0.557583000
C        0.717672000      1.563361000     -0.790933000
C        0.484022000      1.416157000     -3.213359000
H       -0.113062000      1.535778000     -4.112197000
C        4.968220000     -3.717180000      0.335868000
H        5.113253000     -4.789760000      0.379636000
C        7.418029000     -3.532217000      0.085969000
C        0.376585000      1.948803000      2.926970000
H       -0.646493000      2.311744000      2.979589000
C        1.108722000      1.747629000      4.067217000
H        0.675718000      1.959293000      5.040907000
C        0.192382000      1.867216000      0.468911000
H       -0.816431000      2.260790000      0.550716000
C        1.810339000      0.905149000     -3.309569000
H        2.214378000      0.647690000     -4.284729000
H       -2.813925000      3.855297000     -0.556724000
