51
B3LYP/6-31G(d) level optimized coordinates of first singlet excited state (S1), HF =  -2054.5393308a.u.
C        0.000000000      3.863518000      1.202840000
C        0.000000000      2.724507000      2.004565000
C        0.000000000      1.404406000      1.454157000
C        0.000000000      1.278866000      0.015249000
C        0.000000000      2.474332000     -0.762423000
C        0.000000000      3.731264000     -0.187401000
C        0.000000000      0.000000000     -0.626661000
C        0.000000000     -1.278866000      0.015249000
C        0.000000000     -1.404406000      1.454157000
C        0.000000000     -2.724507000      2.004565000
C        0.000000000     -3.863518000      1.202840000
C        0.000000000     -3.731264000     -0.187401000
C        0.000000000     -2.474332000     -0.762423000
H        0.000000000      4.844784000      1.659241000
H        0.000000000      2.410485000     -1.845464000
H        0.000000000      4.616505000     -0.817876000
H        0.000000000     -4.844784000      1.659241000
H        0.000000000     -4.616505000     -0.817876000
H        0.000000000     -2.410485000     -1.845464000
C        0.000000000      2.949208000      3.500051000
C        0.000000000     -2.949208000      3.500051000
F        0.000000000      4.270563000      3.815259000
F        1.088174000      2.420693000      4.108024000
F       -1.088174000      2.420693000      4.108024000
F       -1.088174000     -2.420693000      4.108024000
F        1.088174000     -2.420693000      4.108024000
F        0.000000000     -4.270563000      3.815259000
P        0.000000000      0.000000000      2.573037000
C        0.000000000      0.000000000     -2.123571000
C       -1.226666000      0.000000000     -2.858747000
C        1.226666000      0.000000000     -2.858747000
C       -1.225343000      0.000000000     -4.298832000
C       -2.472257000      0.000000000     -2.188406000
C        1.225343000      0.000000000     -4.298832000
C        2.472257000      0.000000000     -2.188406000
C       -2.458231000      0.000000000     -4.996099000
C        0.000000000      0.000000000     -4.988102000
C       -3.667131000      0.000000000     -2.899681000
H       -2.472995000      0.000000000     -1.105607000
C        2.458231000      0.000000000     -4.996099000
C        3.667131000      0.000000000     -2.899681000
H        2.472995000      0.000000000     -1.105607000
C       -3.661371000      0.000000000     -4.305211000
H       -2.449365000      0.000000000     -6.082658000
H        0.000000000      0.000000000     -6.075490000
H       -4.610495000      0.000000000     -2.363287000
H        2.449365000      0.000000000     -6.082658000
C        3.661371000      0.000000000     -4.305211000
H        4.610495000      0.000000000     -2.363287000
H       -4.599491000      0.000000000     -4.851528000
H        4.599491000      0.000000000     -4.851528000
