95
	Energy:     125.4649316
C         -2.92646        1.95447       -1.37237
C         -2.98514        3.35651       -1.34385
C         -1.94873        4.10733       -0.77711
C         -0.86815        3.41683       -0.23501
C         -0.81324        2.03666       -0.27005
C         -1.82927        1.27422       -0.83398
H         -3.74155        1.39044       -1.81916
H         -1.77606        0.18871       -0.85495
H         -3.84598        3.86624       -1.76918
H         -1.99216        5.19341       -0.76156
C          0.37001        1.66323        0.33274
C          0.92281        0.40796        0.55891
C          2.15918        0.35213        1.21081
C          2.80486        1.52735        1.62411
C          1.00566        2.82390        0.72888
N          0.25748        3.90270        0.36120
C          2.23161        2.78182        1.38859
H          0.41639       -0.49876        0.23832
H          2.62436       -0.61213        1.40019
H          3.76417        1.46344        2.13155
H          2.73593        3.68882        1.71066
C          0.42924        5.16601        0.83484
C         -0.52868        5.75509        1.66105
C         -0.33966        7.05671        2.16468
C          1.57677        5.87024        0.48391
C          1.78650        7.14759        0.98845
C          0.84988        7.74970        1.83179
H         -1.43665        5.20475        1.89467
H          2.31896        5.42099       -0.17208
H          2.69661        7.67878        0.72020
C         -1.43758        7.69161        2.97918
C         -2.00230        7.07047        4.11456
C         -1.94949        8.93333        2.56175
C         -2.99883        9.56965        3.24102
C         -3.07056        7.68515        4.76718
C         -3.56952        8.90951        4.33587
H         -3.51827        7.21136        5.63797
H         -4.39312        9.35058        4.89143
H         -1.52426        9.39282        1.67421
C         -3.45230       10.84209        2.83873
C          1.16741        9.13528        2.38091
C         -1.46475        5.76121        4.67683
N         -2.76756       11.51538        1.88662
N         -4.54254       11.38372        3.42883
C         -3.19102       12.74122        1.50624
C         -4.93682       12.63011        3.07654
N         -4.26699       13.30638        2.10850
N         -6.01686       13.19325        3.70278
N         -2.51089       13.40182        0.52091
C         -6.19862       13.24153        5.06294
C         -6.79525       14.19355        3.18063
C         -7.45118       14.85819        4.19880
C         -7.08507       14.25431        5.37946
C         -2.42060       14.76146        0.38900
C         -2.01828       15.07869       -0.89428
C         -1.84730       13.89261       -1.57194
C         -2.16280       12.87152       -0.69506
C         -5.66889       12.43589        6.07464
C         -6.06115       12.68065        7.39481
C         -6.96221       13.70936        7.69906
C         -7.48562       14.51523        6.68522
C         -7.01157       14.55467        1.85005
C         -7.86873       15.62932        1.58741
C         -8.31608       15.91958        3.95894
C         -8.51284       16.30833        2.63141
H         -4.97511       11.62811        5.87027
H         -5.66553       12.05943        8.19458
H         -7.25988       13.87812        8.73108
H         -8.19090       15.31058        6.91187
H         -6.53231       14.02670        1.03020
H         -8.04026       15.93938        0.55973
H         -8.82233       16.43139        4.77353
H         -9.17742       17.13899        2.40661
C         -2.62730       15.76654        1.33416
C         -2.45670       17.09597        0.93120
C         -2.06659       17.40684       -0.37969
C         -1.83308       16.39165       -1.31114
H         -1.51750       16.62352       -2.32517
H         -1.93700       18.44599       -0.67196
H         -2.91391       15.53851        2.35709
H         -2.62508       17.89835        1.64523
C         -1.42365       13.65137       -2.87408
C         -1.31797       12.32074       -3.28712
C         -1.63799       11.27581       -2.40997
C         -2.06625       11.53932       -1.10469
H         -0.98108       12.09397       -4.29559
H         -1.17161       14.46716       -3.54659
H         -2.30391       10.71149       -0.44516
H         -1.54730       10.24571       -2.74570
H          2.24710        9.29022        2.43986
H          0.76398        9.26634        3.38724
H          0.75284        9.91001        1.73234
H         -0.38401        5.68439        4.53863
H         -1.94240        4.90919        4.18898
H         -1.66237        5.68955        5.74873
