62
	Energy:      80.3804927
C         -2.79871        1.84003        0.67484
C         -2.81094        3.24301        0.64579
C         -1.67005        3.96295        0.27371
C         -0.52986        3.24301       -0.07411
C         -0.52278        1.86273       -0.03624
C         -1.64345        1.12904        0.33430
H         -3.69588        1.29967        0.96665
H         -1.62538        0.04244        0.35771
H         -3.71807        3.77796        0.91538
H         -1.67943        5.04999        0.25244
C          0.73774        1.45871       -0.41585
C          1.28871        0.18868       -0.54198
C          2.62406        0.09895       -0.94735
C          3.36971        1.25671       -1.21441
C          1.46394        2.60372       -0.67972
N          0.69030        3.71029       -0.47169
C          2.79585        2.52593       -1.08287
H          0.70572       -0.70397       -0.33052
H          3.08982       -0.87765       -1.05425
H          4.40759        1.16769       -1.52561
H          3.38223        3.41743       -1.28776
C          0.85007        4.84997       -1.19760
N         -0.04698        5.17616       -2.15828
C          0.15663        6.28530       -2.91057
N          1.25209        7.05557       -2.71497
N          1.92576        5.63293       -0.95636
C          2.11785        6.73157       -1.72461
N         -0.74532        6.64128       -3.87159
C         -1.55655        5.73772       -4.50254
C         -2.77602        6.31370       -4.79807
C         -2.71757        7.61860       -4.36535
C         -1.46710        7.80309       -3.80675
C         -3.79235        5.61063       -5.43413
C         -3.54249        4.27798       -5.77532
C         -2.30083        3.68865       -5.49334
C         -1.28850        4.41727       -4.85907
H         -0.32603        3.95855       -4.64562
H         -2.12267        2.65281       -5.77078
H         -4.31612        3.69489       -6.26864
H         -4.74804        6.07743       -5.65824
C         -3.65415        8.64293       -4.44458
C         -3.28928        9.89558       -3.94314
C         -1.09223        9.05281       -3.31214
C         -2.01917       10.09801       -3.38526
H         -4.63247        8.48113       -4.88959
H         -3.99350       10.72246       -3.99359
H         -1.74811       11.08125       -3.00871
H         -0.10927        9.23036       -2.88671
C          3.23300        7.55866       -1.48206
C          3.46250        8.71156       -2.25167
C          4.14609        7.26302       -0.45655
C          4.55669        9.53666       -2.00067
C          5.44933        9.23376       -0.97474
C          5.23942        8.09003       -0.20745
H          2.79106        8.98994       -3.06024
H          4.70874       10.42332       -2.61195
H          4.02076        6.38410        0.17117
H          5.92926        7.83803        0.59449
C          6.64049       10.13360       -0.69712
H          6.45837       11.14753       -1.06080
H          7.53250        9.74487       -1.19309
H          6.83957       10.19068        0.37556
