82
Non-adiabatic coupling (NAC) vector at Qy-minimum; SA4-CASSCF(6,6);SA6-CASCI(6,6);XMS-CASPT2/ANO-RCC-VDZP
Mg         0.33477        0.12073        0.06976
C         -0.33862       -0.58278       -0.11825
C          0.57062        0.19023        0.07887
C          1.80922        3.12397        0.79145
C          2.40233       -2.26077        0.08303
N          0.05311       -0.19536       -0.03060
C         -0.19794        0.30050        0.02414
C         -0.01863       -0.02023        0.01221
C          0.03675       -0.01353       -0.02066
C         -0.50357        0.41190       -0.00358
C         -0.02555        0.01423        0.00582
C          0.00172       -0.00995       -0.00978
C          0.00304        0.00200       -0.00031
C         -0.00852       -0.00832        0.01129
O          0.00652        0.00894       -0.00758
O          0.00618        0.00171       -0.00834
N          2.15732        0.80146        0.47692
C         -0.08906       -2.31362       -0.29342
C         -1.57099        0.51099       -0.10480
C          0.80517        0.49699        0.15319
C         -3.03615       -1.47187       -0.77645
C         -0.00160        0.00177        0.00591
C         -0.21499        0.15545       -0.02717
C          0.13361       -0.03470        0.02274
N          0.09325       -2.07745       -0.29559
C         -1.69456       -2.22560       -0.68868
C          0.79375        1.76240        0.41657
C          0.93742       -0.76670        0.05486
C         -2.47354        3.77420        0.15140
C         -0.06500        0.03865       -0.00852
C          0.06451        0.05961        0.07239
C         -0.02004       -0.02032       -0.06560
N          0.14744        0.68930        0.14213
C         -1.59250        0.43940       -0.17979
C          1.83598       -1.05617        0.10173
C         -0.66824       -0.82900       -0.22382
C          0.28663        0.81312        0.13935
C          0.12177        0.28935        0.06393
C          0.10709        0.23736        0.04675
O          0.01274       -0.12127       -0.01990
C          0.00439       -0.03113       -0.01250
C         -0.02024       -0.01063       -0.05949
O          0.03732        0.01559        0.03168
O          0.00966       -0.01112        0.05092
C         -0.00984        0.00323       -0.02349
H         -0.00243       -0.00039        0.00232
H         -0.02445        0.01337        0.01172
H          0.00698        0.03535        0.01874
H          0.00460       -0.00809       -0.00143
H         -0.03043       -0.00577        0.00031
H         -0.00014       -0.01113       -0.00992
H          0.00245       -0.00131        0.00179
H         -0.00664       -0.01224       -0.01089
H          0.00060        0.00145        0.00081
H         -0.00086        0.00150        0.00290
H         -0.00038       -0.00146       -0.00008
H         -0.00002        0.00111        0.00001
H         -0.00823       -0.01005       -0.00090
H          0.01304       -0.02343       -0.01232
H          0.01686       -0.02764        0.00476
H          0.01175       -0.03934       -0.01035
H          0.00962        0.02210        0.01476
H          0.01564        0.00633       -0.00115
H         -0.02235       -0.02857       -0.00935
H         -0.02358       -0.03622       -0.00394
H         -0.01179        0.01080       -0.00324
H         -0.00016       -0.05362       -0.03646
H         -0.00838       -0.01341       -0.01495
H          0.00100       -0.02553        0.02242
H          0.01844       -0.01025        0.01660
H          0.00297        0.00628        0.00002
H         -0.09210       -0.03310        0.03122
H         -0.08197       -0.01691       -0.06781
H          0.00174        0.01206        0.00380
H          0.02876       -0.00194        0.00685
H          0.00028       -0.00115        0.00341
H          0.00206       -0.00065        0.00219
H          0.00106        0.00099        0.00267
C         -0.00429       -0.00081        0.00683
H          0.00106        0.00035       -0.00050
H         -0.00014       -0.00053        0.00007
H         -0.00002        0.00053       -0.00067
