! RI-SCS-wPBEPP86 CPCM(dmf) RIJCOSX verytightscf defgrid3 
%MaxCore 90000 

%basis 
  basis "aug-cc-pVTZ" 
  auxJ "aug-cc-pVTZ/JK" 
  auxC "aug-cc-pVTZ/C" 
end 

%tddft 
  lrcpcm true 
  cpcmeq false 
  iroot 1 
  tda true 
  triplets false 
  nroots 20 
  dotrans true 
end 

*xyzfile 0 1 optfreq0.xyz
