62
	Energy:      73.2299094
C         -2.46333        0.14367       -1.09216
C         -2.97616        1.44466       -0.97025
C         -2.26133        2.43612       -0.28904
C         -1.02972        2.08811        0.25709
C         -0.52934        0.80720        0.13587
C         -1.22447       -0.19215       -0.53492
H         -3.03519       -0.61164       -1.62559
H         -0.82149       -1.19743       -0.62630
H         -3.94074        1.68582       -1.40991
H         -2.65690        3.44429       -0.19162
C          0.69210        0.79505        0.77453
C          1.61953       -0.22346        0.95917
C          2.78625        0.08477        1.66718
C          3.00158        1.37867        2.16733
C          0.90143        2.07018        1.26215
N         -0.15858        2.86836        0.95570
C          2.05569        2.39102        1.96953
H          1.44550       -1.22361        0.57074
H          3.53352       -0.68724        1.83330
H          3.91357        1.59719        2.71714
H          2.21848        3.39278        2.35945
C         -0.03025        4.19877        0.72338
C         -0.37971        5.09978        1.72798
C         -0.30978        6.48447        1.48997
C          0.41181        4.65436       -0.51751
C          0.48969        6.02211       -0.75928
C          0.12473        6.93477        0.22909
H         -0.73548        4.71708        2.68192
H          0.68567        3.94871       -1.29875
H          0.83131        6.38067       -1.72698
C         -0.71215        7.46165        2.55581
C         -0.40321        7.21876        3.90747
C         -1.42329        8.62865        2.22226
C         -1.81516        9.51874        3.22098
C         -0.78607        8.12679        4.89335
C         -1.49280        9.27634        4.55518
H         -0.53594        7.93324        5.93340
H         -1.79840        9.97368        5.33213
H         -1.69903        8.83580        1.19073
N         -2.54566       10.61070        2.88260
C         -3.81700       10.80593        3.33152
C         -1.99726       11.85001        2.74906
C         -2.92041       12.81724        3.09533
C         -4.07154       12.15603        3.46667
C         -4.78741        9.85517        3.63246
C         -5.30052       12.63075        3.90957
C         -6.28546       11.68630        4.21916
C         -6.03112       10.31259        4.08200
H         -4.58815        8.79178        3.52347
H         -6.80954        9.59438        4.32727
H         -5.49093       13.69568        4.01391
H         -7.25888       12.02007        4.57007
C         -0.71952       12.19400        2.31903
C         -2.62045       14.17300        3.03785
C         -1.33859       14.53420        2.60887
C         -0.39828       13.55454        2.25297
H          0.59160       13.85596        1.91966
H          0.00576       11.43370        2.03989
H         -1.06867       15.58565        2.54887
H         -3.35404       14.92636        3.31308
H          0.19769        7.99771        0.01232
H          0.14972        6.32986        4.20116
